FoamFile {
        version         1.4;
        format          ascii;

        root            "";
        case            "";
        instance        "constant";
        local           "";

        class           dictionary;
        object          gmtDict;
}

projection "X2i/1.8i";
projection2D XZ;
separateLegend true;
plotBoundaryDots false;
plotZeroValuePolys false;

FieldsToPlot (
	[T rawValues 288 294 0.25 "$GMTU/colours/green_linear_rev.cpt"]
        [none mesh "gray70"]
        [Uf vectors 12 3 "magenta"]
);

region "-0.5e3/5e3/0/1.5e3";
boundaryMarks "1e3/0.5e3wSen";
